94

S	-17.067496	20.169195	2.518709
T	-16.640809	17.773467	6.064865
P	-17.043676	20.022216	-1.049894
S	-13.324269	18.681555	-0.827371
G	-12.683159	14.755221	2.104634
P	-10.870009	19.793331	-3.446005
S	-8.206518	16.552509	-2.550525
T	-10.578973	13.323325	-1.411198
P	-4.619872	16.978586	-3.442363
S	-3.953270	13.610372	-1.787866
G	-7.947487	11.320797	-3.354797
P	-0.856064	11.627519	-1.094724
S	-2.935343	8.173894	-1.077146
T	-5.530427	8.968005	-4.458775
P	-0.946967	5.170588	0.191367
S	-3.421943	2.864090	-2.080540
C	-4.631222	5.636893	-5.153056
P	-2.004239	-0.691655	-2.405639
S	-4.351330	-1.243873	-5.548413
A	-3.554041	2.939237	-7.764482
P	-4.870056	-4.609717	-7.253123
S	-6.038763	-2.010813	-10.491942
A	-3.560312	1.867349	-11.054449
P	-7.938300	-3.813115	-13.163408
S	-7.483000	-0.394832	-15.278974
G	-3.355064	2.249976	-14.706374
P	-8.901374	0.201844	-18.723862
S	-5.901445	2.920434	-19.511195
T	-2.141721	1.467003	-17.879116
P	-6.496499	4.707136	-22.773428
S	-2.611587	5.133208	-22.975627
G	-0.157281	1.583089	-20.751007
P	-1.078743	6.890052	-25.928776
S	2.512262	5.471057	-25.915317
G	2.389874	1.208471	-23.546889
P	5.171460	6.013607	-28.524152
S	8.058301	3.359159	-27.575297
C	6.077337	-0.422296	-27.481269
P	11.434931	3.850890	-29.308396
S	12.459611	-0.034228	-27.978756
T	8.890157	-2.250859	-29.003032
P	15.959400	-0.917359	-28.990463
S	15.255174	-4.958436	-27.834729
G	11.031665	-6.715739	-29.686778
P	17.439581	-7.328613	-25.859970
S	15.115019	-10.570043	-27.553150
T	14.063763	-9.494359	-31.517710
S	4.243825	-11.399610	-36.361321
A	8.691960	-9.988414	-35.207076
P	3.085559	-13.486685	-34.002426
S	5.256741	-12.306200	-30.653424
C	6.406718	-8.164247	-30.487723
P	3.592816	-14.186015	-27.802968
S	4.976170	-11.274250	-25.454867
A	4.929142	-6.961668	-27.607798
P	4.237697	-11.456244	-21.775123
S	5.234496	-7.862365	-20.859699
G	3.966228	-4.661458	-24.338295
P	5.541697	-6.688786	-17.288676
S	7.808029	-3.694438	-17.333838
C	4.964095	-2.711603	-20.226537
P	10.407488	-1.750655	-16.929253
S	8.709653	1.668524	-17.403148
C	4.661990	0.426439	-17.729934
P	9.818359	4.914043	-15.844339
S	6.541723	6.630282	-16.502880
A	3.240864	3.234159	-15.647190
P	5.410005	10.226977	-15.915600
S	1.543328	9.943466	-16.750168
C	0.220476	6.570488	-14.464880
P	-0.636894	13.043664	-17.285086
S	-3.765918	10.517399	-15.399191
T	-2.571820	7.578250	-12.607697
P	-7.146153	12.163420	-15.369054
S	-8.814102	8.581196	-14.459978
T	-6.242516	7.504133	-11.134246
P	-12.039134	6.858817	-15.398320
S	-12.041899	5.022326	-11.923432
G	-8.587404	6.629659	-8.825737
P	-15.011011	3.348996	-10.324715
S	-14.373399	3.625510	-6.117144
A	-11.348595	7.008620	-6.632534
P	-15.463707	2.187313	-2.877754
S	-12.400260	3.668828	-1.018925
C	-11.870969	7.400376	-2.942241
P	-11.745635	2.799160	2.594192
S	-8.692659	4.599756	3.962397
A	-11.086458	7.916909	1.866985
P	-6.425542	4.885300	6.891374
S	-6.337786	9.031642	6.255792
C	-10.052595	10.461754	4.566685
P	-4.273360	10.335084	9.181227
S	-6.556324	13.699704	9.031591
A	-11.128036	13.365361	7.604547
